opendss_4_bus_results/4busDYBal_VLL_Node.txt

LINE-LINE VOLTAGES BY BUS & NODE

Bus          Node    VLN (kV)   Angle      pu     Base kV 

SOURCEBUS .. 1-2      12.47 /_   30.0   0.99997    12.470
   -         2-3      12.47 /_  -90.0   0.99997    12.470
   -         3-1      12.47 /_  150.0   0.99997    12.470
N2 ......... 1-2     12.341 /_   29.7   0.98964    12.470
   -         2-3      12.35 /_  -90.4   0.99036    12.470
   -         3-1     12.319 /_  149.6    0.9879    12.470
N3 ......... 1-2     3.9022 /_   -3.5   0.93803     4.160
   -         2-3      3.921 /_ -123.5   0.94254     4.160
   -         3-1      3.907 /_  116.3   0.93918     4.160
N4 ......... 1-2     3.4334 /_   -7.6   0.82534     4.160
   -         2-3      3.518 /_ -129.3   0.84568     4.160
   -         3-1     3.3861 /_  110.3   0.81397     4.160
