opendss_4_bus_results/4busDYBal_VLN_Node.txt

LINE-GROUND and LINE-LINE VOLTAGES BY BUS & NODE

Bus          Node    VLN (kV)   Angle      pu     Base kV    Node-Node   VLL (kV)  Angle      pu

SOURCEBUS .. 1       7.1994 /_    0.0   0.99997    12.470        1-2      12.47 /_   30.0   0.99997
   -         2       7.1994 /_ -120.0   0.99997    12.470        2-3      12.47 /_  -90.0   0.99997
   -         3       7.1994 /_  120.0   0.99997    12.470        3-1      12.47 /_  150.0   0.99997
N2 ......... 1       7.1113 /_   -0.3   0.98774    12.470        1-2     12.341 /_   29.7   0.98964
   -         2       7.1339 /_ -120.4   0.99088    12.470        2-3      12.35 /_  -90.4   0.99036
   -         3       7.1224 /_  119.6   0.98928    12.470        3-1     12.319 /_  149.6    0.9879
N3 ......... 1       2.2498 /_  -33.7   0.93671     4.160        1-2     3.9022 /_   -3.5   0.93803
   -         2       2.2631 /_ -153.4   0.94228     4.160        2-3      3.921 /_ -123.5   0.94254
   -         3       2.2595 /_   86.4   0.94077     4.160        3-1      3.907 /_  116.3   0.93918
N4 ......... 1       1.9226 /_  -39.1   0.80049     4.160        1-2     3.4334 /_   -7.6   0.82534
   -         2       2.0564 /_ -158.3   0.85622     4.160        2-3      3.518 /_ -129.3   0.84568
   -         3       1.9887 /_   80.8   0.82802     4.160        3-1     3.3861 /_  110.3   0.81397
